Version 4
SHEET 1 1176 680
WIRE 128 -176 112 -176
WIRE 240 -176 208 -176
WIRE 112 -32 112 -176
WIRE 240 -32 240 -176
WIRE -608 32 -688 32
WIRE -368 32 -608 32
WIRE -208 32 -368 32
WIRE -112 32 -208 32
WIRE -48 32 -112 32
WIRE 32 32 -48 32
WIRE 528 32 320 32
WIRE 688 32 528 32
WIRE 832 32 688 32
WIRE 944 32 832 32
WIRE 1120 32 944 32
WIRE 528 48 528 32
WIRE 688 48 688 32
WIRE 1120 80 1120 32
WIRE -688 96 -688 32
WIRE -208 128 -208 96
WIRE -48 128 -48 32
WIRE 32 128 -48 128
WIRE 496 128 320 128
WIRE 528 144 528 128
WIRE -368 160 -368 32
WIRE 688 160 688 128
WIRE 688 160 624 160
WIRE -400 176 -496 176
WIRE -192 192 -336 192
WIRE 688 192 688 160
WIRE -608 208 -608 112
WIRE -400 208 -608 208
WIRE -192 224 -192 192
WIRE 32 224 -192 224
WIRE 336 224 320 224
WIRE 416 224 400 224
WIRE 496 224 496 128
WIRE 528 224 528 208
WIRE 528 224 496 224
WIRE 624 224 624 160
WIRE 624 224 528 224
WIRE -496 256 -496 176
WIRE -688 272 -688 176
WIRE -608 288 -608 208
WIRE 688 304 688 272
WIRE 832 304 832 96
WIRE 832 304 688 304
WIRE 32 320 0 320
WIRE 416 320 320 320
WIRE 688 352 688 304
WIRE 1120 352 1120 160
WIRE -608 400 -608 368
WIRE -496 400 -496 336
WIRE -496 400 -608 400
WIRE -368 400 -368 224
WIRE -368 400 -496 400
WIRE 0 416 0 320
WIRE 112 416 112 384
WIRE 112 416 0 416
WIRE 240 416 240 384
WIRE 240 416 112 416
WIRE -608 432 -608 400
WIRE 0 448 0 416
FLAG 688 352 0
FLAG -688 272 0
FLAG 0 448 0
FLAG -112 32 Vin
FLAG 416 320 Vin
FLAG 1120 352 0
FLAG 944 32 Vout
FLAG -208 128 0
FLAG -608 432 0
SYMBOL PowerProducts\\LTC3534 176 176 R0
SYMATTR InstName U1
SYMBOL ind 112 -160 R270
WINDOW 0 32 56 VTop 2
WINDOW 3 5 56 VBottom 2
SYMATTR InstName L1
SYMATTR Value 10µ
SYMBOL res 672 32 R0
SYMATTR InstName R1
SYMATTR Value 649k
SYMBOL res 672 176 R0
SYMATTR InstName R2
SYMATTR Value 162k
SYMBOL res 512 32 R0
SYMATTR InstName R3
SYMATTR Value 10k
SYMBOL cap 512 144 R0
SYMATTR InstName C1
SYMATTR Value 33pF
SYMBOL res 512 208 R90
WINDOW 0 0 56 VBottom 2
WINDOW 3 32 56 VTop 2
SYMATTR InstName R4
SYMATTR Value 15k
SYMBOL voltage -688 80 R0
WINDOW 3 -294 90 Left 2
WINDOW 123 0 0 Left 2
WINDOW 39 0 0 Left 2
SYMATTR InstName V1
SYMATTR Value PWL(0 5 2m 5 3m 3.2 5m 2.7)
SYMBOL cap 816 32 R0
SYMATTR InstName C3
SYMATTR Value 22µF
SYMBOL res 1104 64 R0
SYMATTR InstName R5
SYMATTR Value 15
SYMBOL cap 400 208 R90
WINDOW 0 0 32 VBottom 2
WINDOW 3 32 32 VTop 2
SYMATTR InstName C2
SYMATTR Value 330p
SYMBOL cap -224 32 R0
SYMATTR InstName C4
SYMATTR Value 100µF
SYMBOL Comparators\\LT1017 -368 192 R0
SYMATTR InstName U2
SYMBOL voltage -496 240 R0
WINDOW 123 0 0 Left 2
WINDOW 39 0 0 Left 2
SYMATTR InstName V2
SYMATTR Value 1.8V
SYMBOL res -624 16 R0
SYMATTR InstName R6
SYMATTR Value 500k
SYMBOL res -624 272 R0
SYMATTR InstName R7
SYMATTR Value 900k
TEXT -722 472 Left 2 !.tran 0 25m 0
